
(###) main... (-1219725616)(T0=2016-9-19_9:35:40 T1=0.2250)
Login Starting... (1609190935)(0) (-1219725616)(T0=2016-9-19_9:35:40 T1=0.2250)
new ProcessManager...OK (-1219725616)(T0=2016-9-19_9:35:40 T1=0.5240)
new PlayerPool...OK (-1219725616)(T0=2016-9-19_9:35:40 T1=0.5240)
new PacketFactoryManager...OK (-1219725616)(T0=2016-9-19_9:35:40 T1=0.5240)
new BillPacketFactoryManager...OK (-1219725616)(T0=2016-9-19_9:35:40 T1=0.5240)
new g_pProcessPlayerQueue...OK (-1219725616)(T0=2016-9-19_9:35:40 T1=0.5240)
new g_pWorldPlayerQueue...OK (-1219725616)(T0=2016-9-19_9:35:40 T1=0.5240)
new ThreadManager...OK (-1219725616)(T0=2016-9-19_9:35:40 T1=0.5240)
new ServerManager...OK (-1219725616)(T0=2016-9-19_9:35:40 T1=0.5240)
new DBThreadManager...OK (-1219725616)(T0=2016-9-19_9:35:40 T1=0.5250)
new ConnectManager...OK (-1219725616)(T0=2016-9-19_9:35:40 T1=0.5270)
new FontFile...OK (-1219725616)(T0=2016-9-19_9:35:40 T1=0.5280)
new IPRegionTable...OK (-1219725616)(T0=2016-9-19_9:35:40 T1=0.6940)
new Generator...OK (-1219725616)(T0=2016-9-19_9:35:40 T1=0.6940)
g_pPlayerPool->Init()...OK (-1219725616)(T0=2016-9-19_9:35:41 T1=1.0700)
g_pPacketFactoryManager->Init()...OK (-1219725616)(T0=2016-9-19_9:35:41 T1=1.0700)
g_pBPacketFactoryManager->Init()...OK (-1219725616)(T0=2016-9-19_9:35:41 T1=1.0700)
g_pTurnPlayerQueue->Init() ... OK (-1219725616)(T0=2016-9-19_9:35:41 T1=1.0700)
g_pWorldPlayerQueue->Init() ... OK (-1219725616)(T0=2016-9-19_9:35:41 T1=1.0700)
g_pDBThreadManager->Init()...OK (-1219725616)(T0=2016-9-19_9:35:41 T1=1.1970)
g_pDBThreadManager->CheckWorldIDZoneID(101,0)...OK (-1219725616)(T0=2016-9-19_9:35:41 T1=1.2210)
g_pConnectManager->Init()...OK (-1219725616)(T0=2016-9-19_9:35:41 T1=1.2250)
g_pProcessManager->Init()...OK (-1219725616)(T0=2016-9-19_9:35:41 T1=1.2270)
g_pThreadManager->Init()...OK (-1219725616)(T0=2016-9-19_9:35:41 T1=1.2270)
g_pGenerator->setFontFile()...OK (-1219725616)(T0=2016-9-19_9:35:41 T1=1.2280)

Loop... (-1219725616)(T0=2016-9-19_9:35:41 T1=1.2280)
g_pConnectManager->start( )... (-1219725616)(T0=2016-9-19_9:35:41 T1=1.2280)
g_pThreadManager->Start( )... (-1219725616)(T0=2016-9-19_9:35:41 T1=1.2280)
g_pDBThreadManager->Start() ... (-1219725616)(T0=2016-9-19_9:35:41 T1=1.2280)
g_pProcessManager->Loop( )... (-1219725616)(T0=2016-9-19_9:35:41 T1=1.2290)
