
(###) main... (-1219467568)(T0=2017-8-17_22:1:50 T1=0.8000)
Login Starting... (1708172201)(0) (-1219467568)(T0=2017-8-17_22:1:50 T1=0.8010)
new ProcessManager...OK (-1219467568)(T0=2017-8-17_22:1:50 T1=0.9960)
new PlayerPool...OK (-1219467568)(T0=2017-8-17_22:1:50 T1=0.9960)
new PacketFactoryManager...OK (-1219467568)(T0=2017-8-17_22:1:50 T1=0.9960)
new BillPacketFactoryManager...OK (-1219467568)(T0=2017-8-17_22:1:50 T1=0.9960)
new g_pProcessPlayerQueue...OK (-1219467568)(T0=2017-8-17_22:1:50 T1=0.9970)
new g_pWorldPlayerQueue...OK (-1219467568)(T0=2017-8-17_22:1:50 T1=0.9980)
new ThreadManager...OK (-1219467568)(T0=2017-8-17_22:1:50 T1=0.9980)
new ServerManager...OK (-1219467568)(T0=2017-8-17_22:1:50 T1=0.9990)
new DBThreadManager...OK (-1219467568)(T0=2017-8-17_22:1:50 T1=1.0050)
new ConnectManager...OK (-1219467568)(T0=2017-8-17_22:1:50 T1=1.0170)
new FontFile...OK (-1219467568)(T0=2017-8-17_22:1:50 T1=1.0200)
new IPRegionTable...OK (-1219467568)(T0=2017-8-17_22:1:51 T1=1.1880)
new Generator...OK (-1219467568)(T0=2017-8-17_22:1:51 T1=1.1880)
g_pPlayerPool->Init()...OK (-1219467568)(T0=2017-8-17_22:1:52 T1=2.7100)
g_pPacketFactoryManager->Init()...OK (-1219467568)(T0=2017-8-17_22:1:52 T1=2.7100)
g_pBPacketFactoryManager->Init()...OK (-1219467568)(T0=2017-8-17_22:1:52 T1=2.7100)
g_pTurnPlayerQueue->Init() ... OK (-1219467568)(T0=2017-8-17_22:1:52 T1=2.7100)
g_pWorldPlayerQueue->Init() ... OK (-1219467568)(T0=2017-8-17_22:1:52 T1=2.7100)
g_pDBThreadManager->Init()...OK (-1219467568)(T0=2017-8-17_22:1:52 T1=2.8310)
g_pDBThreadManager->CheckWorldIDZoneID(101,0)...OK (-1219467568)(T0=2017-8-17_22:1:52 T1=2.9010)
g_pConnectManager->Init()...OK (-1219467568)(T0=2017-8-17_22:1:52 T1=2.9270)
g_pProcessManager->Init()...OK (-1219467568)(T0=2017-8-17_22:1:52 T1=2.9280)
g_pThreadManager->Init()...OK (-1219467568)(T0=2017-8-17_22:1:52 T1=2.9280)
g_pGenerator->setFontFile()...OK (-1219467568)(T0=2017-8-17_22:1:52 T1=2.9290)

Loop... (-1219467568)(T0=2017-8-17_22:1:52 T1=2.9290)
g_pConnectManager->start( )... (-1219467568)(T0=2017-8-17_22:1:52 T1=2.9290)
g_pThreadManager->Start( )... (-1219467568)(T0=2017-8-17_22:1:52 T1=2.9290)
g_pDBThreadManager->Start() ... (-1219467568)(T0=2017-8-17_22:1:52 T1=2.9290)
g_pProcessManager->Loop( )... (-1219467568)(T0=2017-8-17_22:1:52 T1=2.9310)
